Circuit: * D:\el_engineering\lab1\Draft1.asc

Direct Newton iteration for .op point succeeded.

Date: Sun Feb 26 11:52:09 2023
Total elapsed time: 0.076 seconds.

tnom = 27
temp = 27
method = modified trap
totiter = 755
traniter = 749
tranpoints = 312
accept = 235
rejected = 77
matrix size = 24
fillins = 0
solver = Normal
Matrix Compiler1: 2.16 KB object code size  1.2/0.4/[0.4]
Matrix Compiler2: 2.62 KB object code size  0.6/0.6/[0.4]

