Circuit: * D:\el_engineering\lab1\Draft4.asc

Direct Newton iteration failed to find .op point.  (Use ".option noopiter" to skip.)
Starting Gmin stepping
Gmin = 10
Gmin = 1.07374
Gmin = 0.115292
Gmin = 0.0123794
Gmin = 0.00132923
Gmin = 0.000142725
Gmin = 1.5325e-005
Gmin = 1.6455e-006
Gmin = 1.76685e-007
Gmin = 1.89714e-008
Gmin = 2.03704e-009
Gmin = 2.18725e-010
Gmin = 2.34854e-011
Gmin = 2.52173e-012
Gmin = 2.70769e-013
Gmin = 0
Gmin stepping succeeded in finding the operating point.


Date: Sun Feb 26 12:20:25 2023
Total elapsed time: 3.885 seconds.

tnom = 27
temp = 27
method = modified trap
totiter = 1478
traniter = 1028
tranpoints = 309
accept = 240
rejected = 69
matrix size = 1746
fillins = 212
solver = Normal
Thread vector: 1110.2/561.2[8] 110.4/71.8[8] 133.4/76.1[8] 17.9/10.9[7]  2592/500
Matrix Compiler1: 271.89 KB object code size  111.7/53.2/[53.0]
Matrix Compiler2: 220.96 KB object code size  77.4/106.8/[57.7]

